[General]
sim-time-limit = 100s
network = DynamicRadius
**.N = 12
**.maxWidth = 850
**.maxHeight = 500
**.*.T = 10
**.*.m = 3
**.*.radius = 200
**.*.t = 1s
**.user11.sendInitialMessage = true
**.user11.dynamicRadius = true

[Config ConsistencyTest_T]
**.*.radius = 425 #43% (alto numero di collisioni)
**.*.m = 12 #ci interessano le collisioni, quindi non ci interessa che i nodi si disattivino
repeat = 27
**.*.T = ${repetition}+2
seed-0-mt = ${repetition} #i tau cambiano con T

[Config ConsistencyTest_R]
seed-0-mt = 0
repeat = 101
**.*.radius = ${repetition}*9.86

[Config ConsistencyTest_m]
**.*.radius = 255 #26%
**.*.T = 12
repeat = 11
**.*.m = ${repetition}+2
seed-0-mt = 0

[Config SpecificSeed]
seed-set = 0

[Config Multiple]
repeat = 100
seed-set = ${repetition}