[General]
sim-time-limit = 500s
num-rngs = 2
network = DynamicFloorplan
**.N = 50
**.maxWidth = 1000
**.maxHeight = 500
**.*.T = 35
**.*.m = 10
**.*.radius = 200
**.*.t = 1s
**.user.sendInitialMessage = true
**.user.dynamicGeneration = true

[Config ConsistencyTest_N]
**.*.radius = 300
**.*.T= 25
**.*.m = 6
repeat = 99
**.N = ${repetition}+2
seed-0-mt = ${repetition} #i tau cambiano con T
seed-1-mt = ${repetition} #cambiano le posizioni

[Config ConsistencyTest_T]
**.*.radius = 250 #22%
**.*.m = 50 #ci interessano le collisioni, quindi non ci interessa che i nodi si disattivino
repeat = 99
**.*.T = ${repetition}+2
seed-0-mt = ${repetition} #i tau cambiano con T
seed-1-mt = 9

[Config ConsistencyTest_R]
seed-0-mt = 15
seed-1-mt = 9
repeat = 101
**.*.radius = ${repetition}*11.18

[Config ConsistencyTest_m]
**.*.radius = 300 #27%
**.*.T = 30
repeat = 29
**.*.m = ${repetition}+2
seed-0-mt = 4
seed-1-mt = 11

[Config SpecificSeed]
seed-0-mt = 0
seed-1-mt = 1

[Config Multiple]
repeat = 100
seed-0-mt = ${repetition}  #generazione tau
seed-1-mt = ${repetition}  #generazione posizioni

[Config Analysis]
sim-time-limit = 2000s
**.N = 300 #[200,300]
**.*.T = 10 #[10,20]
**.*.m = 9#[4,9]
**.*.radius = 650 #[650,800]
repeat = 100
seed-0-mt = ${repetition}  #generazione tau
seed-1-mt = 15



